pcf
* control data
restart estimation
     24  13887     11      0     9
     1     1   single   point   1   0   0
5.0   2.0    0.3    0.03    10  999
5.0   5.0   1.0e-3
0.1   aui
 35   .005  4   4  .005   4
1    1    1
* parameter groups
lzsn         relative     1.0000E-02  1.0000E-03  switch      2.000      parabolic
infilt       relative     1.0000E-02  1.0000E-03  switch      2.000      parabolic
agwrc        relative     1.0000E-02  1.0000E-03  switch      2.000      parabolic
deepfr       relative     1.0000E-02  1.0000E-03  switch      2.000      parabolic
basetp       relative     1.0000E-02  1.0000E-03  switch      2.000      parabolic
agwetp       relative     1.0000E-02  1.0000E-03  switch      2.000      parabolic
uzsn         relative     1.0000E-02  1.0000E-03  switch      2.000      parabolic
intfw        relative     1.0000E-02  1.0000E-03  switch      2.000      parabolic
irc          relative     1.0000E-02  1.0000E-03  switch      2.000      parabolic
cepsc        relative     1.0000E-02  1.0000E-03  switch      2.000      parabolic
lzetp        relative     1.0000E-02  1.0000E-03  switch      2.000      parabolic
* parameter data
lzsn000      log    factor       14.0000        2.0000        15.000      lzsn           1.000       0.000        1
infilt110    log    factor       5.00000E-02   1.00000E-03   0.50000      infilt         1.000       0.000        1
infilt120    log    factor       5.00000E-02   1.00000E-03   0.50000      infilt         1.000       0.000        1
infilt210    log    factor       5.00000E-02   1.00000E-03   0.50000      infilt         1.000       0.000        1
infilt220    log    factor       5.00000E-02   1.00000E-03   0.50000      infilt         1.000       0.000        1
infilt310    log    factor       5.00000E-02   1.00000E-03   0.50000      infilt         1.000       0.000        1
infilt320    log    factor       5.00000E-02   1.00000E-03   0.50000      infilt         1.000       0.000        1
agwrc000     log    factor       0.99000       8.50000E-02   0.99900      agwrc          1.000       0.000        1
deepfr000    log    factor       1.00000E-03   1.00000E-05   0.50000      deepfr         1.000       0.000        1
basetp000    log    factor       3.00000E-02   1.00000E-03   0.20000      basetp         1.000       0.000        1
agwetp000    log    factor       5.00000E-02   1.00000E-03   0.20000      agwetp         1.000       0.000        1
uzsn100      log    factor       0.50000       5.00000E-02    2.0000      uzsn           1.000       0.000        1
uzsn200      log    factor       0.50000       5.00000E-02    2.0000      uzsn           1.000       0.000        1
uzsn300      log    factor       0.50000       5.00000E-02    2.0000      uzsn           1.000       0.000        1
intfw100     log    factor        10.000        1.0000        10.000      intfw          1.000       0.000        1
intfw200     log    factor        1.0000        1.0000        10.000      intfw          1.000       0.000        1
intfw300     log    factor        1.0000        1.0000        10.000      intfw          1.000       0.000        1
irc000       log    factor       0.50000       0.30000       0.85000      irc            1.000       0.000        1
cepsc100     log    factor       0.20000       0.10000       0.40000      cepsc          1.000       0.000        1
cepsc200     log    factor       0.10000       1.00000E-02   0.20000      cepsc          1.000       0.000        1
cepsc300     log    factor       0.10000       1.00000E-02   0.20000      cepsc          1.000       0.000        1
lzetp100     log    factor       0.80000       0.40000       0.80000      lzetp          1.000       0.000        1
lzetp200     log    factor       0.60000       0.10000       0.80000      lzetp          1.000       0.000        1
lzetp300     log    factor       0.60000       0.10000       0.80000      lzetp          1.000       0.000        1
* observation groups
mlog
mflow
mbaseind
mpeak
mvol_ann
mvol_smr
mvol_wtr
mvol_stm
mtime
* observation data
mlog_0001               1.79658E+00     1.000000E+00  mlog
mlog_0002               1.65897E+00     1.000000E+00  mlog
mlog_0003               1.78675E+00     1.000000E+00  mlog
mlog_0004               1.83442E+00     1.000000E+00  mlog
mlog_0005               1.71012E+00     1.000000E+00  mlog
mlog_0006               1.63043E+00     1.000000E+00  mlog
mlog_0007               1.58433E+00     1.000000E+00  mlog
mlog_0008               1.55145E+00     1.000000E+00  mlog
mlog_0009               1.53403E+00     1.000000E+00  mlog
mlog_0010               1.72181E+00     1.000000E+00  mlog
mlog_0011               2.61732E+00     1.000000E+00  mlog
mlog_0012               2.48982E+00     1.000000E+00  mlog
mlog_0013               2.30255E+00     1.000000E+00  mlog
mlog_0014               2.16197E+00     1.000000E+00  mlog
mlog_0015               2.05115E+00     1.000000E+00  mlog
mlog_0016               1.99211E+00     1.000000E+00  mlog
mlog_0017               2.00475E+00     1.000000E+00  mlog
mlog_0018               2.11261E+00     1.000000E+00  mlog
mlog_0019               2.03981E+00     1.000000E+00  mlog
mlog_0020               1.99870E+00     1.000000E+00  mlog
mlog_0021               1.99211E+00     1.000000E+00  mlog
mlog_0022               1.98588E+00     1.000000E+00  mlog
mlog_0023               1.93852E+00     1.000000E+00  mlog
mlog_0024               1.90956E+00     1.000000E+00  mlog
mlog_0025               1.95279E+00     1.000000E+00  mlog
mlog_0026               2.34928E+00     1.000000E+00  mlog
mlog_0027               2.34380E+00     1.000000E+00  mlog
mlog_0028               2.24674E+00     1.000000E+00  mlog
mlog_0029               2.17056E+00     1.000000E+00  mlog
mlog_0030               2.10755E+00     1.000000E+00  mlog
mlog_0031               2.04571E+00     1.000000E+00  mlog
mlog_0032               2.00475E+00     1.000000E+00  mlog
mlog_0033               1.96614E+00     1.000000E+00  mlog
mlog_0034               1.92428E+00     1.000000E+00  mlog
mlog_0035               1.90146E+00     1.000000E+00  mlog
mlog_0036               1.94596E+00     1.000000E+00  mlog
mlog_0037               2.08778E+00     1.000000E+00  mlog
mlog_0038               2.32366E+00     1.000000E+00  mlog
mlog_0039               2.75442E+00     1.000000E+00  mlog
mlog_0040               3.00775E+00     1.000000E+00  mlog
mlog_0041               2.80760E+00     1.000000E+00  mlog
mlog_0042               3.16625E+00     1.000000E+00  mlog
mlog_0043               3.32662E+00     1.000000E+00  mlog
mlog_0044               3.21788E+00     1.000000E+00  mlog
mlog_0045               3.14063E+00     1.000000E+00  mlog
mlog_0046               2.97626E+00     1.000000E+00  mlog
mlog_0047               2.83556E+00     1.000000E+00  mlog
mlog_0048               2.73094E+00     1.000000E+00  mlog
mlog_0049               2.66398E+00     1.000000E+00  mlog
mlog_0050               2.58805E+00     1.000000E+00  mlog
mlog_0051               2.53365E+00     1.000000E+00  mlog
mlog_0052               2.48982E+00     1.000000E+00  mlog
mlog_0053               2.45439E+00     1.000000E+00  mlog
mlog_0054               2.42292E+00     1.000000E+00  mlog
mlog_0055               2.60217E+00     1.000000E+00  mlog
mlog_0056               3.02206E+00     1.000000E+00  mlog
mlog_0057               3.04995E+00     1.000000E+00  mlog
mlog_0058               3.22162E+00     1.000000E+00  mlog
mlog_0059               3.57006E+00     1.000000E+00  mlog
mlog_0060               3.42293E+00     1.000000E+00  mlog
mlog_0061               3.54612E+00     1.000000E+00  mlog
mlog_0062               3.51892E+00     1.000000E+00  mlog
mlog_0063               3.39895E+00     1.000000E+00  mlog
mlog_0064               3.26064E+00     1.000000E+00  mlog
mlog_0065               3.15125E+00     1.000000E+00  mlog
mlog_0066               3.06830E+00     1.000000E+00  mlog
mlog_0067               2.99352E+00     1.000000E+00  mlog
mlog_0068               2.91158E+00     1.000000E+00  mlog
mlog_0069               2.84098E+00     1.000000E+00  mlog
mlog_0070               2.83283E+00     1.000000E+00  mlog
mlog_0071               2.95895E+00     1.000000E+00  mlog
mlog_0072               3.32369E+00     1.000000E+00  mlog
mlog_0073               3.36562E+00     1.000000E+00  mlog
mlog_0074               3.47150E+00     1.000000E+00  mlog
mlog_0075               3.38643E+00     1.000000E+00  mlog
mlog_0076               3.41110E+00     1.000000E+00  mlog
mlog_0077               3.24334E+00     1.000000E+00  mlog
mlog_0078               3.11955E+00     1.000000E+00  mlog
mlog_0079               3.04218E+00     1.000000E+00  mlog
mlog_0080               2.97626E+00     1.000000E+00  mlog
mlog_0081               2.90704E+00     1.000000E+00  mlog
mlog_0082               2.83193E+00     1.000000E+00  mlog
mlog_0083               2.76410E+00     1.000000E+00  mlog
mlog_0084               2.69749E+00     1.000000E+00  mlog
mlog_0085               2.63195E+00     1.000000E+00  mlog
mlog_0086               2.57008E+00     1.000000E+00  mlog
mlog_0087               2.51891E+00     1.000000E+00  mlog
mlog_0088               2.47770E+00     1.000000E+00  mlog
mlog_0089               2.48586E+00     1.000000E+00  mlog
mlog_0090               2.91004E+00     1.000000E+00  mlog
mlog_0091               3.16203E+00     1.000000E+00  mlog
mlog_0092               3.32662E+00     1.000000E+00  mlog
mlog_0093               3.13751E+00     1.000000E+00  mlog
mlog_0094               2.99352E+00     1.000000E+00  mlog
mlog_0095               2.90854E+00     1.000000E+00  mlog
mlog_0096               2.86522E+00     1.000000E+00  mlog
mlog_0097               2.87772E+00     1.000000E+00  mlog
mlog_0098               2.95071E+00     1.000000E+00  mlog
mlog_0099               3.02090E+00     1.000000E+00  mlog
mlog_0100               3.26064E+00     1.000000E+00  mlog
mlog_0101               3.17047E+00     1.000000E+00  mlog
mlog_0102               3.11008E+00     1.000000E+00  mlog
mlog_0103               3.03310E+00     1.000000E+00  mlog
mlog_0104               2.93591E+00     1.000000E+00  mlog
mlog_0105               2.84273E+00     1.000000E+00  mlog
mlog_0106               2.77873E+00     1.000000E+00  mlog
mlog_0107               2.93232E+00     1.000000E+00  mlog
mlog_0108               3.26064E+00     1.000000E+00  mlog
mlog_0109               3.22531E+00     1.000000E+00  mlog
mlog_0110               3.12424E+00     1.000000E+00  mlog
mlog_0111               3.29645E+00     1.000000E+00  mlog
mlog_0112               3.41825E+00     1.000000E+00  mlog
mlog_0113               3.50753E+00     1.000000E+00  mlog
mlog_0114               3.36827E+00     1.000000E+00  mlog
mlog_0115               3.22531E+00     1.000000E+00  mlog
mlog_0116               3.40384E+00     1.000000E+00  mlog
mlog_0117               3.36293E+00     1.000000E+00  mlog
mlog_0118               3.25380E+00     1.000000E+00  mlog
mlog_0119               3.19482E+00     1.000000E+00  mlog
mlog_0120               3.19874E+00     1.000000E+00  mlog
mlog_0121               3.18684E+00     1.000000E+00  mlog
mlog_0122               3.10428E+00     1.000000E+00  mlog
mlog_0123               3.00346E+00     1.000000E+00  mlog
mlog_0124               2.90396E+00     1.000000E+00  mlog
mlog_0125               2.81238E+00     1.000000E+00  mlog
mlog_0126               2.73775E+00     1.000000E+00  mlog
mlog_0127               2.68359E+00     1.000000E+00  mlog
mlog_0128               2.71096E+00     1.000000E+00  mlog
mlog_0129               3.48586E+00     1.000000E+00  mlog
mlog_0130               3.89772E+00     1.000000E+00  mlog
mlog_0131               3.82737E+00     1.000000E+00  mlog
mlog_0132               3.79688E+00     1.000000E+00  mlog
mlog_0133               3.44347E+00     1.000000E+00  mlog
mlog_0134               3.21413E+00     1.000000E+00  mlog
mlog_0135               3.05162E+00     1.000000E+00  mlog
mlog_0136               2.92942E+00     1.000000E+00  mlog
mlog_0137               2.82827E+00     1.000000E+00  mlog
mlog_0138               2.74562E+00     1.000000E+00  mlog
mlog_0139               2.68233E+00     1.000000E+00  mlog
mlog_0140               2.69126E+00     1.000000E+00  mlog
mlog_0141               2.97754E+00     1.000000E+00  mlog
mlog_0142               3.15168E+00     1.000000E+00  mlog
mlog_0143               3.10037E+00     1.000000E+00  mlog
mlog_0144               3.19086E+00     1.000000E+00  mlog
mlog_0145               3.15776E+00     1.000000E+00  mlog
mlog_0146               3.38643E+00     1.000000E+00  mlog
mlog_0147               3.35482E+00     1.000000E+00  mlog
mlog_0148               3.21788E+00     1.000000E+00  mlog
mlog_0149               3.09346E+00     1.000000E+00  mlog
mlog_0150               2.98014E+00     1.000000E+00  mlog
mlog_0151               2.88178E+00     1.000000E+00  mlog
mlog_0152               2.79190E+00     1.000000E+00  mlog
mlog_0153               2.71450E+00     1.000000E+00  mlog
mlog_0154               2.65447E+00     1.000000E+00  mlog
mlog_0155               2.61437E+00     1.000000E+00  mlog
mlog_0156               2.88902E+00     1.000000E+00  mlog
mlog_0157               2.96028E+00     1.000000E+00  mlog
mlog_0158               2.90547E+00     1.000000E+00  mlog
mlog_0159               2.83014E+00     1.000000E+00  mlog
mlog_0160               2.75656E+00     1.000000E+00  mlog
mlog_0161               2.69373E+00     1.000000E+00  mlog
mlog_0162               2.63629E+00     1.000000E+00  mlog
mlog_0163               2.59901E+00     1.000000E+00  mlog
mlog_0164               2.54617E+00     1.000000E+00  mlog
mlog_0165               2.49776E+00     1.000000E+00  mlog
mlog_0166               2.45879E+00     1.000000E+00  mlog
mlog_0167               2.41830E+00     1.000000E+00  mlog
mlog_0168               2.37621E+00     1.000000E+00  mlog
mlog_0169               2.34655E+00     1.000000E+00  mlog
mlog_0170               2.32077E+00     1.000000E+00  mlog
mlog_0171               2.29645E+00     1.000000E+00  mlog
mlog_0172               2.26741E+00     1.000000E+00  mlog
mlog_0173               2.24329E+00     1.000000E+00  mlog
mlog_0174               2.27068E+00     1.000000E+00  mlog
mlog_0175               2.24329E+00     1.000000E+00  mlog
mlog_0176               2.20656E+00     1.000000E+00  mlog
mlog_0177               2.17464E+00     1.000000E+00  mlog
mlog_0178               2.15351E+00     1.000000E+00  mlog
mlog_0179               2.14019E+00     1.000000E+00  mlog
mlog_0180               2.12189E+00     1.000000E+00  mlog
mlog_0181               2.11727E+00     1.000000E+00  mlog
mlog_0182               2.11261E+00     1.000000E+00  mlog
mlog_0183               2.17464E+00     1.000000E+00  mlog
mlog_0184               2.18696E+00     1.000000E+00  mlog
mlog_0185               2.19479E+00     1.000000E+00  mlog
mlog_0186               2.17869E+00     1.000000E+00  mlog
mlog_0187               2.17056E+00     1.000000E+00  mlog
mlog_0188               2.14891E+00     1.000000E+00  mlog
mlog_0189               2.13130E+00     1.000000E+00  mlog
mlog_0190               2.11261E+00     1.000000E+00  mlog
mlog_0191               2.09795E+00     1.000000E+00  mlog
mlog_0192               2.07773E+00     1.000000E+00  mlog
mlog_0193               2.08279E+00     1.000000E+00  mlog
mlog_0194               2.14891E+00     1.000000E+00  mlog
mlog_0195               2.52634E+00     1.000000E+00  mlog
mlog_0196               2.87111E+00     1.000000E+00  mlog
mlog_0197               2.76305E+00     1.000000E+00  mlog
mlog_0198               2.64197E+00     1.000000E+00  mlog
mlog_0199               2.58320E+00     1.000000E+00  mlog
mlog_0200               2.61437E+00     1.000000E+00  mlog
mlog_0201               2.62614E+00     1.000000E+00  mlog
mlog_0202               2.71332E+00     1.000000E+00  mlog
mlog_0203               2.78689E+00     1.000000E+00  mlog
mlog_0204               2.84273E+00     1.000000E+00  mlog
mlog_0205               2.84714E+00     1.000000E+00  mlog
mlog_0206               3.27070E+00     1.000000E+00  mlog
mlog_0207               3.45010E+00     1.000000E+00  mlog
mlog_0208               3.23977E+00     1.000000E+00  mlog
mlog_0209               3.07617E+00     1.000000E+00  mlog
mlog_0210               2.94369E+00     1.000000E+00  mlog
mlog_0211               2.83828E+00     1.000000E+00  mlog
mlog_0212               2.74671E+00     1.000000E+00  mlog
mlog_0213               2.65992E+00     1.000000E+00  mlog
mlog_0214               2.58636E+00     1.000000E+00  mlog
mlog_0215               2.51891E+00     1.000000E+00  mlog
mlog_0216               2.46938E+00     1.000000E+00  mlog
mlog_0217               2.41347E+00     1.000000E+00  mlog
mlog_0218               2.35488E+00     1.000000E+00  mlog
mlog_0219               2.30255E+00     1.000000E+00  mlog
mlog_0220               2.27393E+00     1.000000E+00  mlog
mlog_0221               2.23629E+00     1.000000E+00  mlog
mlog_0222               2.19479E+00     1.000000E+00  mlog
mlog_0223               2.16613E+00     1.000000E+00  mlog
mlog_0224               2.13577E+00     1.000000E+00  mlog
mlog_0225               2.11261E+00     1.000000E+00  mlog
mlog_0226               2.17056E+00     1.000000E+00  mlog
mlog_0227               2.14891E+00     1.000000E+00  mlog
mlog_0228               2.14891E+00     1.000000E+00  mlog
mlog_0229               2.12646E+00     1.000000E+00  mlog
mlog_0230               2.20276E+00     1.000000E+00  mlog
mlog_0231               2.36021E+00     1.000000E+00  mlog
mlog_0232               2.46090E+00     1.000000E+00  mlog
mlog_0233               2.42765E+00     1.000000E+00  mlog
mlog_0234               2.40381E+00     1.000000E+00  mlog
mlog_0235               2.67587E+00     1.000000E+00  mlog
mlog_0236               2.85327E+00     1.000000E+00  mlog
mlog_0237               2.77254E+00     1.000000E+00  mlog
mlog_0238               2.67062E+00     1.000000E+00  mlog
mlog_0239               2.57990E+00     1.000000E+00  mlog
mlog_0240               2.50365E+00     1.000000E+00  mlog
mlog_0241               2.44576E+00     1.000000E+00  mlog
mlog_0242               2.40140E+00     1.000000E+00  mlog
mlog_0243               2.35199E+00     1.000000E+00  mlog
mlog_0244               2.30878E+00     1.000000E+00  mlog
mlog_0245               2.27068E+00     1.000000E+00  mlog
mlog_0246               2.23980E+00     1.000000E+00  mlog
mlog_0247               2.21405E+00     1.000000E+00  mlog
mlog_0248               2.18696E+00     1.000000E+00  mlog
mlog_0249               2.15351E+00     1.000000E+00  mlog
mlog_0250               2.13130E+00     1.000000E+00  mlog
mlog_0251               2.10755E+00     1.000000E+00  mlog
mlog_0252               2.08778E+00     1.000000E+00  mlog
mlog_0253               2.06183E+00     1.000000E+00  mlog
mlog_0254               2.05115E+00     1.000000E+00  mlog
mlog_0255               2.02284E+00     1.000000E+00  mlog
mlog_0256               1.98588E+00     1.000000E+00  mlog
mlog_0257               1.96614E+00     1.000000E+00  mlog
mlog_0258               1.94596E+00     1.000000E+00  mlog
mlog_0259               1.92428E+00     1.000000E+00  mlog
mlog_0260               1.91698E+00     1.000000E+00  mlog
mlog_0261               1.91698E+00     1.000000E+00  mlog
mlog_0262               1.92428E+00     1.000000E+00  mlog
mlog_0263               1.89376E+00     1.000000E+00  mlog
mlog_0264               1.86923E+00     1.000000E+00  mlog
mlog_0265               1.85248E+00     1.000000E+00  mlog
mlog_0266               1.84386E+00     1.000000E+00  mlog
mlog_0267               1.95279E+00     1.000000E+00  mlog
mlog_0268               1.93146E+00     1.000000E+00  mlog
mlog_0269               1.88593E+00     1.000000E+00  mlog
mlog_0270               1.82543E+00     1.000000E+00  mlog
mlog_0271               1.79658E+00     1.000000E+00  mlog
mlog_0272               1.80686E+00     1.000000E+00  mlog
mlog_0273               1.77670E+00     1.000000E+00  mlog
mlog_0274               1.75511E+00     1.000000E+00  mlog
mlog_0275               1.73320E+00     1.000000E+00  mlog
mlog_0276               1.73320E+00     1.000000E+00  mlog
mlog_0277               1.71012E+00     1.000000E+00  mlog
mlog_0278               1.71012E+00     1.000000E+00  mlog
mlog_0279               1.68485E+00     1.000000E+00  mlog
mlog_0280               1.67210E+00     1.000000E+00  mlog
mlog_0281               1.64444E+00     1.000000E+00  mlog
mlog_0282               1.63043E+00     1.000000E+00  mlog
mlog_0283               1.63043E+00     1.000000E+00  mlog
mlog_0284               1.63043E+00     1.000000E+00  mlog
mlog_0285               1.60097E+00     1.000000E+00  mlog
mlog_0286               1.58433E+00     1.000000E+00  mlog
mlog_0287               1.56820E+00     1.000000E+00  mlog
mlog_0288               1.55145E+00     1.000000E+00  mlog
mlog_0289               1.55145E+00     1.000000E+00  mlog
mlog_0290               1.55145E+00     1.000000E+00  mlog
mlog_0291               1.71012E+00     1.000000E+00  mlog
mlog_0292               1.85248E+00     1.000000E+00  mlog
mlog_0293               1.67210E+00     1.000000E+00  mlog
mlog_0294               1.61595E+00     1.000000E+00  mlog
mlog_0295               1.58433E+00     1.000000E+00  mlog
mlog_0296               1.56820E+00     1.000000E+00  mlog
mlog_0297               1.53403E+00     1.000000E+00  mlog
mlog_0298               1.51455E+00     1.000000E+00  mlog
mlog_0299               1.49555E+00     1.000000E+00  mlog
mlog_0300               1.47567E+00     1.000000E+00  mlog
mlog_0301               1.47567E+00     1.000000E+00  mlog
mlog_0302               1.47567E+00     1.000000E+00  mlog
mlog_0303               1.47567E+00     1.000000E+00  mlog
mlog_0304               1.45485E+00     1.000000E+00  mlog
mlog_0305               1.43297E+00     1.000000E+00  mlog
mlog_0306               1.40824E+00     1.000000E+00  mlog
mlog_0307               1.47567E+00     1.000000E+00  mlog
mlog_0308               1.53403E+00     1.000000E+00  mlog
mlog_0309               1.47567E+00     1.000000E+00  mlog
mlog_0310               1.47567E+00     1.000000E+00  mlog
mlog_0311               1.47567E+00     1.000000E+00  mlog
mlog_0312               1.43297E+00     1.000000E+00  mlog
mlog_0313               1.38382E+00     1.000000E+00  mlog
mlog_0314               1.38382E+00     1.000000E+00  mlog
mlog_0315               1.38382E+00     1.000000E+00  mlog
mlog_0316               1.38382E+00     1.000000E+00  mlog
mlog_0317               1.38382E+00     1.000000E+00  mlog
mlog_0318               1.38382E+00     1.000000E+00  mlog
mlog_0319               1.33042E+00     1.000000E+00  mlog
mlog_0320               1.33042E+00     1.000000E+00  mlog
mlog_0321               1.33042E+00     1.000000E+00  mlog
mlog_0322               1.29886E+00     1.000000E+00  mlog
mlog_0323               1.29886E+00     1.000000E+00  mlog
mlog_0324               1.26717E+00     1.000000E+00  mlog
mlog_0325               1.26717E+00     1.000000E+00  mlog
mlog_0326               1.26717E+00     1.000000E+00  mlog
mlog_0327               1.23300E+00     1.000000E+00  mlog
mlog_0328               1.23300E+00     1.000000E+00  mlog
mlog_0329               1.23300E+00     1.000000E+00  mlog
mlog_0330               1.19590E+00     1.000000E+00  mlog
mlog_0331               1.23300E+00     1.000000E+00  mlog
mlog_0332               1.23300E+00     1.000000E+00  mlog
mlog_0333               1.23300E+00     1.000000E+00  mlog
mlog_0334               1.23300E+00     1.000000E+00  mlog
mlog_0335               1.19590E+00     1.000000E+00  mlog
mlog_0336               1.15229E+00     1.000000E+00  mlog
mlog_0337               1.14922E+00     1.000000E+00  mlog
mlog_0338               1.13672E+00     1.000000E+00  mlog
mlog_0339               1.13988E+00     1.000000E+00  mlog
mlog_0340               1.13988E+00     1.000000E+00  mlog
mlog_0341               1.13988E+00     1.000000E+00  mlog
mlog_0342               1.14613E+00     1.000000E+00  mlog
mlog_0343               1.12711E+00     1.000000E+00  mlog
mlog_0344               1.11727E+00     1.000000E+00  mlog
mlog_0345               1.10721E+00     1.000000E+00  mlog
mlog_0346               1.08636E+00     1.000000E+00  mlog
mlog_0347               1.08279E+00     1.000000E+00  mlog
mlog_0348               1.08279E+00     1.000000E+00  mlog
mlog_0349               1.10721E+00     1.000000E+00  mlog
mlog_0350               1.43297E+00     1.000000E+00  mlog
mlog_0351               1.86094E+00     1.000000E+00  mlog
mlog_0352               1.78675E+00     1.000000E+00  mlog
mlog_0353               1.86094E+00     1.000000E+00  mlog
mlog_0354               1.60097E+00     1.000000E+00  mlog
mlog_0355               1.53403E+00     1.000000E+00  mlog
mlog_0356               1.47567E+00     1.000000E+00  mlog
mlog_0357               1.35794E+00     1.000000E+00  mlog
mlog_0358               1.33042E+00     1.000000E+00  mlog
mlog_0359               1.29886E+00     1.000000E+00  mlog
mlog_0360               1.33042E+00     1.000000E+00  mlog
mlog_0361               1.29886E+00     1.000000E+00  mlog
mlog_0362               1.26717E+00     1.000000E+00  mlog
mlog_0363               1.26717E+00     1.000000E+00  mlog
mlog_0364               1.29886E+00     1.000000E+00  mlog
mlog_0365               1.33042E+00     1.000000E+00  mlog
mlog_0366               1.35794E+00     1.000000E+00  mlog
mlog_0367               1.33042E+00     1.000000E+00  mlog
mlog_0368               1.38382E+00     1.000000E+00  mlog
mlog_0369               1.51455E+00     1.000000E+00  mlog
mlog_0370               1.68485E+00     1.000000E+00  mlog
mlog_0371               1.75511E+00     1.000000E+00  mlog
mlog_0372               1.75511E+00     1.000000E+00  mlog
mlog_0373               1.82543E+00     1.000000E+00  mlog
mlog_0374               1.86923E+00     1.000000E+00  mlog
mlog_0375               1.79658E+00     1.000000E+00  mlog
mlog_0376               1.74429E+00     1.000000E+00  mlog
mlog_0377               1.65897E+00     1.000000E+00  mlog
mlog_0378               1.63043E+00     1.000000E+00  mlog
mlog_0379               1.80686E+00     1.000000E+00  mlog
mlog_0380               2.30878E+00     1.000000E+00  mlog
mlog_0381               2.38650E+00     1.000000E+00  mlog
mlog_0382               2.32366E+00     1.000000E+00  mlog
mlog_0383               2.21405E+00     1.000000E+00  mlog
mlog_0384               2.10755E+00     1.000000E+00  mlog
mlog_0385               2.01072E+00     1.000000E+00  mlog
mlog_0386               1.93852E+00     1.000000E+00  mlog
mlog_0387               2.05652E+00     1.000000E+00  mlog
mlog_0388               2.19479E+00     1.000000E+00  mlog
mlog_0389               2.16613E+00     1.000000E+00  mlog
mlog_0390               2.62325E+00     1.000000E+00  mlog
mlog_0391               2.74335E+00     1.000000E+00  mlog
mlog_0392               2.70001E+00     1.000000E+00  mlog
mlog_0393               2.46938E+00     1.000000E+00  mlog
mlog_0394               2.37088E+00     1.000000E+00  mlog
mlog_0395               2.47363E+00     1.000000E+00  mlog
mlog_0396               2.38130E+00     1.000000E+00  mlog
mlog_0397               2.29336E+00     1.000000E+00  mlog
mlog_0398               2.21405E+00     1.000000E+00  mlog
mlog_0399               2.15351E+00     1.000000E+00  mlog
mlog_0400               2.11261E+00     1.000000E+00  mlog
mlog_0401               2.11727E+00     1.000000E+00  mlog
mlog_0402               2.08778E+00     1.000000E+00  mlog
mlog_0403               2.06707E+00     1.000000E+00  mlog
mlog_0404               2.10755E+00     1.000000E+00  mlog
mlog_0405               2.07262E+00     1.000000E+00  mlog
mlog_0406               2.04571E+00     1.000000E+00  mlog
mlog_0407               2.03423E+00     1.000000E+00  mlog
mlog_0408               2.01072E+00     1.000000E+00  mlog
mlog_0409               2.01662E+00     1.000000E+00  mlog
mlog_0410               2.10755E+00     1.000000E+00  mlog
mlog_0411               2.22891E+00     1.000000E+00  mlog
mlog_0412               2.32960E+00     1.000000E+00  mlog
mlog_0413               2.54617E+00     1.000000E+00  mlog
mlog_0414               2.84004E+00     1.000000E+00  mlog
mlog_0415               2.97562E+00     1.000000E+00  mlog
mlog_0416               3.77252E+00     1.000000E+00  mlog
mlog_0417               3.52264E+00     1.000000E+00  mlog
mlog_0418               3.20650E+00     1.000000E+00  mlog
mlog_0419               3.05542E+00     1.000000E+00  mlog
mlog_0420               2.93445E+00     1.000000E+00  mlog
mlog_0421               2.89927E+00     1.000000E+00  mlog
mlog_0422               2.89298E+00     1.000000E+00  mlog
mlog_0423               2.84098E+00     1.000000E+00  mlog
mlog_0424               2.81994E+00     1.000000E+00  mlog
mlog_0425               3.02963E+00     1.000000E+00  mlog
mlog_0426               3.07251E+00     1.000000E+00  mlog
mlog_0427               2.98659E+00     1.000000E+00  mlog
mlog_0428               3.01017E+00     1.000000E+00  mlog
mlog_0429               3.05434E+00     1.000000E+00  mlog
mlog_0430               3.16625E+00     1.000000E+00  mlog
mlog_0431               3.24334E+00     1.000000E+00  mlog
mlog_0432               3.48789E+00     1.000000E+00  mlog
mlog_0433               3.36293E+00     1.000000E+00  mlog
mlog_0434               3.34655E+00     1.000000E+00  mlog
mlog_0435               3.51326E+00     1.000000E+00  mlog
mlog_0436               3.40384E+00     1.000000E+00  mlog
mlog_0437               3.23621E+00     1.000000E+00  mlog
mlog_0438               3.17047E+00     1.000000E+00  mlog
mlog_0439               3.20650E+00     1.000000E+00  mlog