pcf
* control data
restart estimation
     24  11228     11      0     9
     1     1   single   point   1   0   0
5.0   2.0    0.3    0.03    10  999
5.0   5.0   1.0e-3
0.1   aui
0   .005  4   4  .005   4
1    1    1
* parameter groups
lzsn         relative     1.0000E-02  1.0000E-03  switch      2.000      parabolic
infilt       relative     1.0000E-02  1.0000E-03  switch      2.000      parabolic
agwrc        relative     1.0000E-02  1.0000E-03  switch      2.000      parabolic
deepfr       relative     1.0000E-02  1.0000E-03  switch      2.000      parabolic
basetp       relative     1.0000E-02  1.0000E-03  switch      2.000      parabolic
agwetp       relative     1.0000E-02  1.0000E-03  switch      2.000      parabolic
uzsn         relative     1.0000E-02  1.0000E-03  switch      2.000      parabolic
intfw        relative     1.0000E-02  1.0000E-03  switch      2.000      parabolic
irc          relative     1.0000E-02  1.0000E-03  switch      2.000      parabolic
cepsc        relative     1.0000E-02  1.0000E-03  switch      2.000      parabolic
lzetp        relative     1.0000E-02  1.0000E-03  switch      2.000      parabolic
* parameter data
lzsn000      log    factor        8.0000        2.0000        15.000      lzsn           1.000       0.000        1
infilt110    log    factor       5.00000E-02   1.00000E-03   0.50000      infilt         1.000       0.000        1
infilt120    log    factor       5.00000E-02   1.00000E-03   0.50000      infilt         1.000       0.000        1
infilt210    log    factor       5.00000E-02   1.00000E-03   0.50000      infilt         1.000       0.000        1
infilt220    log    factor       5.00000E-02   1.00000E-03   0.50000      infilt         1.000       0.000        1
infilt310    log    factor       5.00000E-02   1.00000E-03   0.50000      infilt         1.000       0.000        1
infilt320    log    factor       5.00000E-02   1.00000E-03   0.50000      infilt         1.000       0.000        1
agwrc000     log    factor       0.99000       8.50000E-02   0.99900      agwrc          1.000       0.000        1
deepfr000    log    factor       1.00000E-03   1.00000E-05   0.50000      deepfr         1.000       0.000        1
basetp000    log    factor       3.00000E-02   1.00000E-03   0.20000      basetp         1.000       0.000        1
agwetp000    log    factor       5.00000E-02   1.00000E-03   0.20000      agwetp         1.000       0.000        1
uzsn100      log    factor       0.50000       5.00000E-02    2.0000      uzsn           1.000       0.000        1
uzsn200      log    factor       0.50000       5.00000E-02    2.0000      uzsn           1.000       0.000        1
uzsn300      log    factor       0.50000       5.00000E-02    2.0000      uzsn           1.000       0.000        1
intfw100     log    factor        10.000        1.0000        10.000      intfw          1.000       0.000        1
intfw200     log    factor        1.0000        1.0000        10.000      intfw          1.000       0.000        1
intfw300     log    factor        1.0000        1.0000        10.000      intfw          1.000       0.000        1
irc000       log    factor       0.50000       0.30000       0.85000      irc            1.000       0.000        1
cepsc100     log    factor       0.20000       0.10000       0.40000      cepsc          1.000       0.000        1
cepsc200     log    factor       0.10000       1.00000E-02   0.20000      cepsc          1.000       0.000        1
cepsc300     log    factor       0.10000       1.00000E-02   0.20000      cepsc          1.000       0.000        1
lzetp100     log    factor       0.80000       0.40000       0.80000      lzetp          1.000       0.000        1
lzetp200     log    factor       0.60000       0.10000       0.80000      lzetp          1.000       0.000        1
lzetp300     log    factor       0.60000       0.10000       0.80000      lzetp          1.000       0.000        1
* observation groups
mlog
mflow
mbaseind
mpeak
mvol_ann
mvol_smr
mvol_wtr
mvol_stm
mtime
* observation data
mlog_1                 1.797268        5.564000E-02  mlog
mlog_2                 1.658966        6.027852E-02  mlog
mlog_3                 1.787461        5.594527E-02  mlog
mlog_4                 1.835057        5.449423E-02  mlog
mlog_5                 1.710118        5.847549E-02  mlog
mlog_6                 1.631445        6.129536E-02  mlog
mlog_7                 1.585462        6.307310E-02  mlog
mlog_8                 1.551451        6.445578E-02  mlog
mlog_9                 1.534027        6.518789E-02  mlog
mlog_10                1.721811        5.807837E-02  mlog
mlog_11                2.618048        3.819639E-02  mlog
mlog_12                2.489959        4.016131E-02  mlog
mlog_13                2.303196        4.341793E-02  mlog
mlog_14                2.161368        4.626699E-02  mlog
mlog_15                2.053079        4.870733E-02  mlog
mlog_16                1.992554        5.018685E-02  mlog
mlog_17                2.004322        4.989219E-02  mlog
mlog_18                2.113944        4.730495E-02  mlog
mlog_19                2.041393        4.898616E-02  mlog
mlog_20                1.999131        5.002174E-02  mlog
mlog_21                1.992554        5.018685E-02  mlog
mlog_22                1.986324        5.034425E-02  mlog
mlog_23                1.939020        5.157244E-02  mlog
mlog_24                1.909557        5.236818E-02  mlog
mlog_25                1.953277        5.119602E-02  mlog
mlog_26                2.350248        4.254870E-02  mlog
mlog_27                2.344393        4.265497E-02  mlog
mlog_28                2.247973        4.448451E-02  mlog
mlog_29                2.170262        4.607738E-02  mlog
mlog_30                2.107210        4.745611E-02  mlog
mlog_31                2.045323        4.889202E-02  mlog
mlog_32                2.004322        4.989219E-02  mlog
mlog_33                1.966612        5.084888E-02  mlog
mlog_34                1.924796        5.195355E-02  mlog
mlog_35                1.902003        5.257614E-02  mlog
mlog_36                1.946453        5.137551E-02  mlog
mlog_37                2.089906        4.784905E-02  mlog
mlog_38                2.324283        4.302403E-02  mlog
mlog_39                2.755112        3.629616E-02  mlog
mlog_40                3.008600        3.323805E-02  mlog
mlog_41                2.808211        3.560986E-02  mlog
mlog_42                3.167317        3.157246E-02  mlog
mlog_43                3.326336        3.006311E-02  mlog
mlog_44                3.217484        3.108019E-02  mlog
mlog_45                3.139879        3.184836E-02  mlog
mlog_46                2.976808        3.359303E-02  mlog
mlog_47                2.836324        3.525690E-02  mlog
mlog_48                2.731589        3.660873E-02  mlog
mlog_49                2.664642        3.752849E-02  mlog
mlog_50                2.588832        3.862746E-02  mlog
mlog_51                2.534026        3.946289E-02  mlog
mlog_52                2.489959        4.016131E-02  mlog
mlog_53                2.454845        4.073577E-02  mlog
mlog_54                2.423246        4.126696E-02  mlog
mlog_55                2.603144        3.841508E-02  mlog
mlog_56                3.021189        3.309955E-02  mlog
mlog_57                3.049218        3.279529E-02  mlog
mlog_58                3.222717        3.102972E-02  mlog
mlog_59                3.570543        2.800694E-02  mlog
mlog_60                3.423246        2.921204E-02  mlog
mlog_61                3.546543        2.819647E-02  mlog
mlog_62                3.519828        2.841048E-02  mlog
mlog_63                3.399674        2.941459E-02  mlog
mlog_64                3.260072        3.067417E-02  mlog
mlog_65                3.152288        3.172299E-02  mlog
mlog_66                3.068186        3.259255E-02  mlog
mlog_67                2.993877        3.340151E-02  mlog
mlog_68                2.912222        3.433804E-02  mlog
mlog_69                2.841360        3.519442E-02  mlog
mlog_70                2.833147        3.529644E-02  mlog
mlog_71                2.959518        3.378928E-02  mlog
mlog_72                3.324282        3.008168E-02  mlog
mlog_73                3.365488        2.971337E-02  mlog
mlog_74                3.471292        2.880772E-02  mlog
mlog_75                3.387390        2.952125E-02  mlog
mlog_76                3.411620        2.931159E-02  mlog
mlog_77                3.243038        3.083528E-02  mlog
mlog_78                3.120574        3.204539E-02  mlog
mlog_79                3.041393        3.287967E-02  mlog
mlog_80                2.976808        3.359303E-02  mlog
mlog_81                2.907411        3.439486E-02  mlog
mlog_82                2.832509        3.530439E-02  mlog
mlog_83                2.764923        3.616737E-02  mlog
mlog_84                2.698101        3.706311E-02  mlog
mlog_85                2.632457        3.798732E-02  mlog
mlog_86                2.570543        3.890229E-02  mlog
mlog_87                2.519828        3.968525E-02  mlog
mlog_88                2.478567        4.034590E-02  mlog
mlog_89                2.485722        4.022977E-02  mlog
mlog_90                2.910625        3.435689E-02  mlog
mlog_91                3.161368        3.163187E-02  mlog
mlog_92                3.326336        3.006311E-02  mlog
mlog_93                3.136721        3.188043E-02  mlog
mlog_94                2.993877        3.340151E-02  mlog
mlog_95                2.909021        3.437583E-02  mlog
mlog_96                2.865696        3.489553E-02  mlog
mlog_97                2.877947        3.474699E-02  mlog
mlog_98                2.951338        3.388294E-02  mlog
mlog_99                3.021189        3.309955E-02  mlog
mlog_100               3.260072        3.067417E-02  mlog
mlog_101               3.170262        3.154314E-02  mlog
mlog_102               3.110590        3.214824E-02  mlog
mlog_103               3.033424        3.296605E-02  mlog
mlog_104               2.936514        3.405398E-02  mlog
mlog_105               2.843233        3.517123E-02  mlog
mlog_106               2.779597        3.597644E-02  mlog
mlog_107               2.932981        3.409501E-02  mlog
mlog_108               3.260072        3.067417E-02  mlog
mlog_109               3.225309        3.100478E-02  mlog
mlog_110               3.123852        3.201176E-02  mlog
mlog_111               3.296665        3.033368E-02  mlog
mlog_112               3.418301        2.925430E-02  mlog
mlog_113               3.507856        2.850744E-02  mlog
mlog_114               3.369216        2.968050E-02  mlog
mlog_115               3.225309        3.100478E-02  mlog
mlog_116               3.404834        2.937001E-02  mlog
mlog_117               3.363612        2.972995E-02  mlog
mlog_118               3.255273        3.071939E-02  mlog
mlog_119               3.195900        3.129009E-02  mlog
mlog_120               3.198657        3.126312E-02  mlog
mlog_121               3.187521        3.137234E-02  mlog
mlog_122               3.103804        3.221853E-02  mlog
mlog_123               3.004321        3.328539E-02  mlog
mlog_124               2.904716        3.442678E-02  mlog
mlog_125               2.812913        3.555033E-02  mlog
mlog_126               2.737988        3.652318E-02  mlog
mlog_127               2.683947        3.725856E-02  mlog
mlog_128               2.711807        3.687578E-02  mlog
mlog_129               3.485721        2.868847E-02  mlog
mlog_130               3.898176        2.565302E-02  mlog
mlog_131               3.828015        2.612320E-02  mlog
mlog_132               3.797267        2.633473E-02  mlog
mlog_133               3.444045        2.903563E-02  mlog
mlog_134               3.214844        3.110571E-02  mlog
mlog_135               3.053078        3.275383E-02  mlog
mlog_136               2.929929        3.413051E-02  mlog
mlog_137               2.828660        3.535243E-02  mlog
mlog_138               2.745855        3.641852E-02  mlog
mlog_139               2.683047        3.727106E-02  mlog
mlog_140               2.691965        3.714758E-02  mlog
mlog_141               2.978181        3.357755E-02  mlog
mlog_142               3.152288        3.172299E-02  mlog
mlog_143               3.100371        3.225421E-02  mlog
mlog_144               3.190332        3.134470E-02  mlog
mlog_145               3.158363        3.166198E-02  mlog
mlog_146               3.387390        2.952125E-02  mlog
mlog_147               3.356026        2.979715E-02  mlog
mlog_148               3.217484        3.108019E-02  mlog
mlog_149               3.093422        3.232666E-02  mlog
mlog_150               2.980458        3.355189E-02  mlog
mlog_151               2.882524        3.469181E-02  mlog
mlog_152               2.792392        3.581159E-02  mlog
mlog_153               2.715168        3.683014E-02  mlog
mlog_154               2.655138        3.766282E-02  mlog
mlog_155               2.614897        3.824242E-02  mlog
mlog_156               2.889302        3.461044E-02  mlog
mlog_157               2.960946        3.377299E-02  mlog
mlog_158               2.905796        3.441398E-02  mlog
mlog_159               2.830589        3.532834E-02  mlog
mlog_160               2.757396        3.626610E-02  mlog
mlog_161               2.694605        3.711119E-02  mlog
mlog_162               2.636488        3.792925E-02  mlog
mlog_163               2.599883        3.846327E-02  mlog
mlog_164               2.546543        3.926892E-02  mlog
mlog_165               2.498311        4.002705E-02  mlog
mlog_166               2.459393        4.066045E-02  mlog
mlog_167               2.418301        4.135134E-02  mlog
mlog_168               2.376577        4.207732E-02  mlog
mlog_169               2.346353        4.261933E-02  mlog
mlog_170               2.322220        4.306225E-02  mlog
mlog_171               2.296665        4.354139E-02  mlog
mlog_172               2.267172        4.410782E-02  mlog
mlog_173               2.243038        4.458238E-02  mlog
mlog_174               2.271842        4.401715E-02  mlog
mlog_175               2.243038        4.458238E-02  mlog
mlog_176               2.206826        4.531394E-02  mlog
mlog_177               2.176091        4.595395E-02  mlog
mlog_178               2.155336        4.639647E-02  mlog
mlog_179               2.139879        4.673160E-02  mlog
mlog_180               2.123852        4.708426E-02  mlog
mlog_181               2.117272        4.723059E-02  mlog
mlog_182               2.113944        4.730495E-02  mlog
mlog_183               2.176091        4.595395E-02  mlog
mlog_184               2.187521        4.571385E-02  mlog
mlog_185               2.195900        4.553942E-02  mlog
mlog_186               2.178977        4.589309E-02  mlog
mlog_187               2.170262        4.607738E-02  mlog
mlog_188               2.149220        4.652852E-02  mlog
mlog_189               2.130334        4.694099E-02  mlog
mlog_190               2.113944        4.730495E-02  mlog
mlog_191               2.096910        4.768921E-02  mlog
mlog_192               2.079182        4.809585E-02  mlog
mlog_193               2.082786        4.801262E-02  mlog
mlog_194               2.149220        4.652852E-02  mlog
mlog_195               2.526339        3.958297E-02  mlog
mlog_196               2.871573        3.482412E-02  mlog
mlog_197               2.763428        3.618694E-02  mlog
mlog_198               2.642465        3.784346E-02  mlog
mlog_199               2.583199        3.871169E-02  mlog
mlog_200               2.614897        3.824242E-02  mlog
mlog_201               2.626340        3.807580E-02  mlog
mlog_202               2.713491        3.685290E-02  mlog
mlog_203               2.787461        3.587495E-02  mlog
mlog_204               2.843233        3.517123E-02  mlog
mlog_205               2.847573        3.511763E-02  mlog
mlog_206               3.271842        3.056383E-02  mlog
mlog_207               3.450249        2.898341E-02  mlog
mlog_208               3.240549        3.085897E-02  mlog
mlog_209               3.075547        3.251454E-02  mlog
mlog_210               2.943989        3.396752E-02  mlog
mlog_211               2.838849        3.522554E-02  mlog
mlog_212               2.747412        3.639789E-02  mlog
mlog_213               2.660866        3.758176E-02  mlog
mlog_214               2.586587        3.866098E-02  mlog
mlog_215               2.519828        3.968525E-02  mlog
mlog_216               2.469822        4.048875E-02  mlog
mlog_217               2.413300        4.143704E-02  mlog
mlog_218               2.356026        4.244435E-02  mlog
mlog_219               2.303196        4.341793E-02  mlog
mlog_220               2.274158        4.397232E-02  mlog
mlog_221               2.238046        4.468183E-02  mlog
mlog_222               2.195900        4.553942E-02  mlog
mlog_223               2.167318        4.613998E-02  mlog
mlog_224               2.136721        4.680068E-02  mlog
mlog_225               2.113944        4.730495E-02  mlog
mlog_226               2.170262        4.607738E-02  mlog
mlog_227               2.149220        4.652852E-02  mlog
mlog_228               2.149220        4.652852E-02  mlog
mlog_229               2.127105        4.701225E-02  mlog
mlog_230               2.204120        4.536958E-02  mlog
mlog_231               2.361728        4.234188E-02  mlog
mlog_232               2.460898        4.063557E-02  mlog
mlog_233               2.428135        4.118387E-02  mlog
mlog_234               2.404834        4.158292E-02  mlog
mlog_235               2.676694        3.735952E-02  mlog
mlog_236               2.853698        3.504225E-02  mlog
mlog_237               2.773055        3.606131E-02  mlog
mlog_238               2.671173        3.743674E-02  mlog
mlog_239               2.580925        3.874580E-02  mlog
mlog_240               2.503791        3.993944E-02  mlog
mlog_241               2.445604        4.088969E-02  mlog
mlog_242               2.401401        4.164236E-02  mlog
mlog_243               2.352183        4.251371E-02  mlog
mlog_244               2.309630        4.329697E-02  mlog
mlog_245               2.271842        4.401715E-02  mlog
mlog_246               2.240550        4.463191E-02  mlog
mlog_247               2.214844        4.514990E-02  mlog
mlog_248               2.187521        4.571385E-02  mlog
mlog_249               2.155336        4.639647E-02  mlog
mlog_250               2.130334        4.694099E-02  mlog
mlog_251               2.107210        4.745611E-02  mlog
mlog_252               2.089906        4.784905E-02  mlog
mlog_253               2.064458        4.843886E-02  mlog
mlog_254               2.053079        4.870733E-02  mlog
mlog_255               2.025306        4.937525E-02  mlog
mlog_256               1.986324        5.034425E-02  mlog
mlog_257               1.966612        5.084888E-02  mlog
mlog_258               1.946453        5.137551E-02  mlog
mlog_259               1.924796        5.195355E-02  mlog
mlog_260               1.917506        5.215108E-02  mlog
mlog_261               1.917506        5.215108E-02  mlog
mlog_262               1.924796        5.195355E-02  mlog
mlog_263               1.894317        5.278948E-02  mlog
mlog_264               1.869819        5.348112E-02  mlog
mlog_265               1.853090        5.396391E-02  mlog
mlog_266               1.843856        5.423417E-02  mlog
mlog_267               1.953277        5.119602E-02  mlog
mlog_268               1.931967        5.176073E-02  mlog
mlog_269               1.886491        5.300846E-02  mlog
mlog_270               1.826075        5.476225E-02  mlog
mlog_271               1.797268        5.564000E-02  mlog
mlog_272               1.806859        5.534467E-02  mlog
mlog_273               1.777428        5.626108E-02  mlog
mlog_274               1.755876        5.695164E-02  mlog
mlog_275               1.734000        5.767012E-02  mlog
mlog_276               1.734000        5.767012E-02  mlog
mlog_277               1.710118        5.847549E-02  mlog
mlog_278               1.710118        5.847549E-02  mlog
mlog_279               1.685743        5.932104E-02  mlog
mlog_280               1.672099        5.980508E-02  mlog
mlog_281               1.645423        6.077463E-02  mlog
mlog_282               1.631445        6.129536E-02  mlog
mlog_283               1.631445        6.129536E-02  mlog
mlog_284               1.631445        6.129536E-02  mlog
mlog_285               1.600974        6.246198E-02  mlog
mlog_286               1.585462        6.307310E-02  mlog
mlog_287               1.569375        6.371963E-02  mlog
mlog_288               1.551451        6.445578E-02  mlog
mlog_289               1.551451        6.445578E-02  mlog
mlog_290               1.551451        6.445578E-02  mlog
mlog_291               1.710118        5.847549E-02  mlog
mlog_292               1.853090        5.396391E-02  mlog
mlog_293               1.672099        5.980508E-02  mlog
mlog_294               1.615951        6.188306E-02  mlog
mlog_295               1.585462        6.307310E-02  mlog
mlog_296               1.569375        6.371963E-02  mlog
mlog_297               1.534027        6.518789E-02  mlog
mlog_298               1.515875        6.596850E-02  mlog
mlog_299               1.496931        6.680334E-02  mlog
mlog_300               1.475673        6.776571E-02  mlog
mlog_301               1.475673        6.776571E-02  mlog
mlog_302               1.475673        6.776571E-02  mlog
mlog_303               1.475673        6.776571E-02  mlog
mlog_304               1.454846        6.873578E-02  mlog
mlog_305               1.432971        6.978509E-02  mlog
mlog_306               1.409935        7.092526E-02  mlog
mlog_307               1.475673        6.776571E-02  mlog
mlog_308               1.534027        6.518789E-02  mlog
mlog_309               1.475673        6.776571E-02  mlog
mlog_310               1.475673        6.776571E-02  mlog
mlog_311               1.475673        6.776571E-02  mlog
mlog_312               1.432971        6.978509E-02  mlog
mlog_313               1.383817        7.226388E-02  mlog
mlog_314               1.383817        7.226388E-02  mlog
mlog_315               1.383817        7.226388E-02  mlog
mlog_316               1.383817        7.226388E-02  mlog
mlog_317               1.383817        7.226388E-02  mlog
mlog_318               1.383817        7.226388E-02  mlog
mlog_319               1.330416        7.516447E-02  mlog
mlog_320               1.330416        7.516447E-02  mlog
mlog_321               1.330416        7.516447E-02  mlog
mlog_322               1.301032        7.686205E-02  mlog
mlog_323               1.301032        7.686205E-02  mlog
mlog_324               1.267174        7.891575E-02  mlog
mlog_325               1.267174        7.891575E-02  mlog
mlog_326               1.267174        7.891575E-02  mlog
mlog_327               1.232999        8.110309E-02  mlog
mlog_328               1.232999        8.110309E-02  mlog
mlog_329               1.232999        8.110309E-02  mlog
mlog_330               1.195902        8.361886E-02  mlog
mlog_331               1.232999        8.110309E-02  mlog
mlog_332               1.232999        8.110309E-02  mlog
mlog_333               1.232999        8.110309E-02  mlog
mlog_334               1.232999        8.110309E-02  mlog
mlog_335               1.195902        8.361886E-02  mlog
mlog_336               1.155339        8.655467E-02  mlog
mlog_337               1.149222        8.701537E-02  mlog
mlog_338               1.136724        8.797212E-02  mlog
mlog_339               1.139882        8.772836E-02  mlog
mlog_340               1.139882        8.772836E-02  mlog
mlog_341               1.139882        8.772836E-02  mlog
mlog_342               1.146131        8.725005E-02  mlog
mlog_343               1.127108        8.872264E-02  mlog
mlog_344               1.117275        8.950351E-02  mlog
mlog_345               1.107213        9.031683E-02  mlog
mlog_346               1.089909        9.175081E-02  mlog
mlog_347               1.082789        9.235410E-02  mlog
mlog_348               1.082789        9.235410E-02  mlog
mlog_349               1.107213        9.031683E-02  mlog
mlog_350               1.432971        6.978509E-02  mlog
mlog_351               1.861535        5.371911E-02  mlog
mlog_352               1.787461        5.594527E-02  mlog
mlog_353               1.861535        5.371911E-02  mlog
mlog_354               1.600974        6.246198E-02  mlog
mlog_355               1.534027        6.518789E-02  mlog
mlog_356               1.475673        6.776571E-02  mlog
mlog_357               1.357937        7.364113E-02  mlog
mlog_358               1.330416        7.516447E-02  mlog
mlog_359               1.301032        7.686205E-02  mlog
mlog_360               1.330416        7.516447E-02  mlog
mlog_361               1.301032        7.686205E-02  mlog
mlog_362               1.267174        7.891575E-02  mlog
mlog_363               1.267174        7.891575E-02  mlog
mlog_364               1.301032        7.686205E-02  mlog
mlog_365               1.330416        7.516447E-02  mlog
mlog_366               1.357937        7.364113E-02  mlog
mlog_367               1.330416        7.516447E-02  mlog
mlog_368               1.383817        7.226388E-02  mlog
mlog_369               1.515875        6.596850E-02  mlog
mlog_370               1.685743        5.932104E-02  mlog
mlog_371               1.755876        5.695164E-02  mlog
mlog_372               1.755876        5.695164E-02  mlog
mlog_373               1.826075        5.476225E-02  mlog
mlog_374               1.869819        5.348112E-02  mlog
mlog_375               1.797268        5.564000E-02  mlog
mlog_376               1.745076        5.730411E-02  mlog
mlog_377               1.658966        6.027852E-02  mlog
mlog_378               1.631445        6.129536E-02  mlog
mlog_379               1.806859        5.534467E-02  mlog
mlog_380               2.309630        4.329697E-02  mlog
mlog_381               2.387390        4.188675E-02  mlog
mlog_382               2.324283        4.302403E-02  mlog
mlog_383               2.214844        4.514990E-02  mlog
mlog_384               2.107210        4.745611E-02  mlog
mlog_385               2.012838        4.968111E-02  mlog
mlog_386               1.939020        5.157244E-02  mlog
mlog_387               2.056905        4.861673E-02  mlog
mlog_388               2.195900        4.553942E-02  mlog
mlog_389               2.167318        4.613998E-02  mlog
mlog_390               2.624282        3.810566E-02  mlog
mlog_391               2.744293        3.643926E-02  mlog
mlog_392               2.700704        3.702738E-02  mlog
mlog_393               2.469822        4.048875E-02  mlog
mlog_394               2.371068        4.217509E-02  mlog
mlog_395               2.474216        4.041684E-02  mlog
mlog_396               2.382017        4.198123E-02  mlog
mlog_397               2.294466        4.358312E-02  mlog
mlog_398               2.214844        4.514990E-02  mlog
mlog_399               2.155336        4.639647E-02  mlog
mlog_400               2.113944        4.730495E-02  mlog
mlog_401               2.117272        4.723059E-02  mlog
mlog_402               2.089906        4.784905E-02  mlog
mlog_403               2.068186        4.835154E-02  mlog
mlog_404               2.107210        4.745611E-02  mlog
mlog_405               2.071882        4.826529E-02  mlog
mlog_406               2.045323        4.889202E-02  mlog
mlog_407               2.033424        4.917813E-02  mlog
mlog_408               2.012838        4.968111E-02  mlog
mlog_409               2.017034        4.957775E-02  mlog
mlog_410               2.107210        4.745611E-02  mlog
mlog_411               2.230449        4.483402E-02  mlog
mlog_412               2.330414        4.291083E-02  mlog
mlog_413               2.546543        3.926892E-02  mlog
mlog_414               2.840733        3.520218E-02  mlog
mlog_415               2.975891        3.360338E-02  mlog
mlog_416               3.773055        2.650372E-02  mlog
mlog_417               3.523746        2.837889E-02  mlog
mlog_418               3.206826        3.118348E-02  mlog
mlog_419               3.056905        3.271283E-02  mlog
mlog_420               2.935003        3.407151E-02  mlog
mlog_421               2.899821        3.448489E-02  mlog
mlog_422               2.893762        3.455709E-02  mlog
mlog_423               2.841360        3.519442E-02  mlog
mlog_424               2.820202        3.545846E-02  mlog
mlog_425               3.029384        3.301001E-02  mlog
mlog_426               3.071882        3.255333E-02  mlog
mlog_427               2.987219        3.347595E-02  mlog
mlog_428               3.008600        3.323805E-02  mlog
mlog_429               3.053078        3.275383E-02  mlog
mlog_430               3.167317        3.157246E-02  mlog
mlog_431               3.243038        3.083528E-02  mlog
mlog_432               3.488551        2.866520E-02  mlog
mlog_433               3.363612        2.972995E-02  mlog
mlog_434               3.346353        2.988328E-02  mlog
mlog_435               3.513218        2.846394E-02  mlog
mlog_436               3.404834        2.937001E-02  mlog
mlog_437               3.235528        3.090685E-02  mlog
mlog_438               3.170262        3.154314E-02  mlog
mlog_439               3.206826        3.118348E-02  mlog
mlog_440               3.209515        3.115735E-02  mlog
mlog_441               3.158363        3.166198E-02  mlog
mlog_442               3.045323        3.283724E-02  mlog
mlog_443               2.931966        3.410681E-02  mlog
mlog_444               2.830589        3.532834E-02  mlog
mlog_445               2.745075        3.642888E-02  mlog
mlog_446               2.672098        3.742378E-02  mlog
mlog_447               2.651278        3.771766E-02  mlog