pcf
* control data
restart estimation
     25  13887     12      0     9
     1     1   single   point   1   0   0
5.0   2.0    0.3    0.03    10  999
5.0   5.0   1.0e-3
0.1   noaui
   -1  .005  4   4  .005   4
1    1    1
* singular value decomposition
1
    10  5.0000000E-07
0
* parameter groups
lzsn         relative     1.0000E-02  1.0000E-03  switch      2.000      parabolic
infilt       relative     1.0000E-02  1.0000E-03  switch      2.000      parabolic
agwrc        relative     1.0000E-02  1.0000E-03  switch      2.000      parabolic
deepfr       relative     1.0000E-02  1.0000E-03  switch      2.000      parabolic
basetp       relative     1.0000E-02  1.0000E-03  switch      2.000      parabolic
agwetp       relative     1.0000E-02  1.0000E-03  switch      2.000      parabolic
uzsn         relative     1.0000E-02  1.0000E-03  switch      2.000      parabolic
intfw        relative     1.0000E-02  1.0000E-03  switch      2.000      parabolic
irc          relative     1.0000E-02  1.0000E-03  switch      2.000      parabolic
cepsc        relative     1.0000E-02  1.0000E-03  switch      2.000      parabolic
lzetp        relative     1.0000E-02  1.0000E-03  switch      2.000      parabolic
iwatr        relative     1.0000E-02  1.0000E-03  switch      2.000      parabolic
* parameter data
lzsn000       log    factor    2.000000      2.0000        15.000      lzsn           1.000       0.000        1
infilt110     log    factor   0.4081917      1.00000e-03   0.50000      infilt         1.000       0.000        1
infilt120     log    factor   0.2692807      1.00000e-03   0.50000      infilt         1.000       0.000        1
infilt210     log    factor   7.0171797E-02  1.00000e-03   0.50000      infilt         1.000       0.000        1
infilt220     log    factor   0.5000000      1.00000e-03   0.50000      infilt         1.000       0.000        1
infilt310     log    factor   6.9690016E-02  1.00000e-03   0.50000      infilt         1.000       0.000        1
infilt320     log    factor   0.1031424      1.00000e-03   0.50000      infilt         1.000       0.000        1
agwrctr000    log    factor    26.56210      9.30000e-01   9.990e+2     agwrc          1.000       0.000        1
deepfr000     log    factor   1.9205653E-04  1.00000e-06   0.50000      deepfr         1.000       0.000        1
basetp000     log    factor   5.9385341E-04  1.00000e-06   0.20000      basetp         1.000       0.000        1
agwetp000     log    factor   4.0588898E-04  1.00000e-06   0.20000      agwetp         1.000       0.000        1
uzsn100       log    factor   0.1011647      5.00000e-02    2.0000      uzsn           1.000       0.000        1
uzsn200       log    factor    1.102750      5.00000e-02    2.0000      uzsn           1.000       0.000        1
uzsn300       log    factor    1.179310      5.00000e-02    2.0000      uzsn           1.000       0.000        1
intfw100      log    factor    1.390549      1.0000        10.000       intfw          1.000       0.000        1
intfw200      log    factor    8.480113      1.0000        10.000       intfw          1.000       0.000        1
intfw300      log    factor    4.311147      1.0000        10.000       intfw          1.000       0.000        1
irctr000      log    factor   0.7044205      0.428571429   2.33333      irc            1.000       0.000        1
cepsc100      log    factor   0.1000000      0.10000       0.40000      cepsc          1.000       0.000        1
cepsc200      log    factor   2.5800247E-02  1.00000e-02   0.20000      cepsc          1.000       0.000        1
cepsc300      log    factor   0.1852679      1.00000e-02   0.20000      cepsc          1.000       0.000        1
lzetp100      log    factor   0.4000000      0.40000       0.80000      lzetp          1.000       0.000        1
lzetp200      log    factor   0.1070421      0.10000       0.80000      lzetp          1.000       0.000        1
lzetp300      log    factor   0.5007330      0.10000       0.80000      lzetp          1.000       0.000        1
retsc         log    factor   0.9827499      0.01000       1.00000      iwatr          1.000       0.000        1
* observation groups
mlog
mflow
mbaseind
mpeak
mvol_ann
mvol_smr
mvol_wtr
mvol_stm
mtime
* observation data
 mlog_0001             1.796580       6.159657E-02  mlog
 mlog_0002             1.658970       6.159657E-02  mlog
 mlog_0003             1.786750       6.159657E-02  mlog
 mlog_0004             1.834420       6.159657E-02  mlog
 mlog_0005             1.710120       6.159657E-02  mlog
 mlog_0006             1.630430       6.159657E-02  mlog
 mlog_0007             1.584330       6.159657E-02  mlog
 mlog_0008             1.551450       6.159657E-02  mlog
 mlog_0009             1.534030       6.159657E-02  mlog
 mlog_0010             1.721810       6.159657E-02  mlog
 mlog_0011             2.617320       6.159657E-02  mlog
 mlog_0012             2.489820       6.159657E-02  mlog
 mlog_0013             2.302550       6.159657E-02  mlog
 mlog_0014             2.161970       6.159657E-02  mlog
 mlog_0015             2.051150       6.159657E-02  mlog
 mlog_0016             1.992110       6.159657E-02  mlog
 mlog_0017             2.004750       6.159657E-02  mlog
 mlog_0018             2.112610       6.159657E-02  mlog
 mlog_0019             2.039810       6.159657E-02  mlog
 mlog_0020             1.998700       6.159657E-02  mlog
 mlog_0021             1.992110       6.159657E-02  mlog
 mlog_0022             1.985880       6.159657E-02  mlog
 mlog_0023             1.938520       6.159657E-02  mlog
 mlog_0024             1.909560       6.159657E-02  mlog
 mlog_0025             1.952790       6.159657E-02  mlog
 mlog_0026             2.349280       6.159657E-02  mlog
 mlog_0027             2.343800       6.159657E-02  mlog
 mlog_0028             2.246740       6.159657E-02  mlog
 mlog_0029             2.170560       6.159657E-02  mlog
 mlog_0030             2.107550       6.159657E-02  mlog
 mlog_0031             2.045710       6.159657E-02  mlog
 mlog_0032             2.004750       6.159657E-02  mlog
 mlog_0033             1.966140       6.159657E-02  mlog
 mlog_0034             1.924280       6.159657E-02  mlog
 mlog_0035             1.901460       6.159657E-02  mlog
 mlog_0036             1.945960       6.159657E-02  mlog
 mlog_0037             2.087780       6.159657E-02  mlog
 mlog_0038             2.323660       6.159657E-02  mlog
 mlog_0039             2.754420       6.159657E-02  mlog
 mlog_0040             3.007750       6.159657E-02  mlog
 mlog_0041             2.807600       6.159657E-02  mlog
 mlog_0042             3.166250       6.159657E-02  mlog
 mlog_0043             3.326620       6.159657E-02  mlog
 mlog_0044             3.217880       6.159657E-02  mlog
 mlog_0045             3.140630       6.159657E-02  mlog
 mlog_0046             2.976260       6.159657E-02  mlog
 mlog_0047             2.835560       6.159657E-02  mlog
 mlog_0048             2.730940       6.159657E-02  mlog
 mlog_0049             2.663980       6.159657E-02  mlog
 mlog_0050             2.588050       6.159657E-02  mlog
 mlog_0051             2.533650       6.159657E-02  mlog
 mlog_0052             2.489820       6.159657E-02  mlog
 mlog_0053             2.454390       6.159657E-02  mlog
 mlog_0054             2.422920       6.159657E-02  mlog
 mlog_0055             2.602170       6.159657E-02  mlog
 mlog_0056             3.022060       6.159657E-02  mlog
 mlog_0057             3.049950       6.159657E-02  mlog
 mlog_0058             3.221620       6.159657E-02  mlog
 mlog_0059             3.570060       6.159657E-02  mlog
 mlog_0060             3.422930       6.159657E-02  mlog
 mlog_0061             3.546120       6.159657E-02  mlog
 mlog_0062             3.518920       6.159657E-02  mlog
 mlog_0063             3.398950       6.159657E-02  mlog
 mlog_0064             3.260640       6.159657E-02  mlog
 mlog_0065             3.151250       6.159657E-02  mlog
 mlog_0066             3.068300       6.159657E-02  mlog
 mlog_0067             2.993520       6.159657E-02  mlog
 mlog_0068             2.911580       6.159657E-02  mlog
 mlog_0069             2.840980       6.159657E-02  mlog
 mlog_0070             2.832830       6.159657E-02  mlog
 mlog_0071             2.958950       6.159657E-02  mlog
 mlog_0072             3.323690       6.159657E-02  mlog
 mlog_0073             3.365620       6.159657E-02  mlog
 mlog_0074             3.471500       6.159657E-02  mlog
 mlog_0075             3.386430       6.159657E-02  mlog
 mlog_0076             3.411100       6.159657E-02  mlog
 mlog_0077             3.243340       6.159657E-02  mlog
 mlog_0078             3.119550       6.159657E-02  mlog
 mlog_0079             3.042180       6.159657E-02  mlog
 mlog_0080             2.976260       6.159657E-02  mlog
 mlog_0081             2.907040       6.159657E-02  mlog
 mlog_0082             2.831930       6.159657E-02  mlog
 mlog_0083             2.764100       6.159657E-02  mlog
 mlog_0084             2.697490       6.159657E-02  mlog
 mlog_0085             2.631950       6.159657E-02  mlog
 mlog_0086             2.570080       6.159657E-02  mlog
 mlog_0087             2.518910       6.159657E-02  mlog
 mlog_0088             2.477700       6.159657E-02  mlog
 mlog_0089             2.485860       6.159657E-02  mlog
 mlog_0090             2.910040       6.159657E-02  mlog
 mlog_0091             3.162030       6.159657E-02  mlog
 mlog_0092             3.326620       6.159657E-02  mlog
 mlog_0093             3.137510       6.159657E-02  mlog
 mlog_0094             2.993520       6.159657E-02  mlog
 mlog_0095             2.908540       6.159657E-02  mlog
 mlog_0096             2.865220       6.159657E-02  mlog
 mlog_0097             2.877720       6.159657E-02  mlog
 mlog_0098             2.950710       6.159657E-02  mlog
 mlog_0099             3.020900       6.159657E-02  mlog
 mlog_0100             3.260640       6.159657E-02  mlog
 mlog_0101             3.170470       6.159657E-02  mlog
 mlog_0102             3.110080       6.159657E-02  mlog
 mlog_0103             3.033100       6.159657E-02  mlog
 mlog_0104             2.935910       6.159657E-02  mlog
 mlog_0105             2.842730       6.159657E-02  mlog
 mlog_0106             2.778730       6.159657E-02  mlog
 mlog_0107             2.932320       6.159657E-02  mlog
 mlog_0108             3.260640       6.159657E-02  mlog
 mlog_0109             3.225310       6.159657E-02  mlog
 mlog_0110             3.124240       6.159657E-02  mlog
 mlog_0111             3.296450       6.159657E-02  mlog
 mlog_0112             3.418250       6.159657E-02  mlog
 mlog_0113             3.507530       6.159657E-02  mlog
 mlog_0114             3.368270       6.159657E-02  mlog
 mlog_0115             3.225310       6.159657E-02  mlog
 mlog_0116             3.403840       6.159657E-02  mlog
 mlog_0117             3.362930       6.159657E-02  mlog
 mlog_0118             3.253800       6.159657E-02  mlog
 mlog_0119             3.194820       6.159657E-02  mlog
 mlog_0120             3.198740       6.159657E-02  mlog
 mlog_0121             3.186840       6.159657E-02  mlog
 mlog_0122             3.104280       6.159657E-02  mlog
 mlog_0123             3.003460       6.159657E-02  mlog
 mlog_0124             2.903960       6.159657E-02  mlog
 mlog_0125             2.812380       6.159657E-02  mlog
 mlog_0126             2.737750       6.159657E-02  mlog
 mlog_0127             2.683590       6.159657E-02  mlog
 mlog_0128             2.710960       6.159657E-02  mlog
 mlog_0129             3.485860       6.159657E-02  mlog
 mlog_0130             3.897720       6.159657E-02  mlog
 mlog_0131             3.827370       6.159657E-02  mlog
 mlog_0132             3.796880       6.159657E-02  mlog
 mlog_0133             3.443470       6.159657E-02  mlog
 mlog_0134             3.214130       6.159657E-02  mlog
 mlog_0135             3.051620       6.159657E-02  mlog
 mlog_0136             2.929420       6.159657E-02  mlog
 mlog_0137             2.828270       6.159657E-02  mlog
 mlog_0138             2.745620       6.159657E-02  mlog
 mlog_0139             2.682330       6.159657E-02  mlog
 mlog_0140             2.691260       6.159657E-02  mlog
 mlog_0141             2.977540       6.159657E-02  mlog
 mlog_0142             3.151680       6.159657E-02  mlog
 mlog_0143             3.100370       6.159657E-02  mlog
 mlog_0144             3.190860       6.159657E-02  mlog
 mlog_0145             3.157760       6.159657E-02  mlog
 mlog_0146             3.386430       6.159657E-02  mlog
 mlog_0147             3.354820       6.159657E-02  mlog
 mlog_0148             3.217880       6.159657E-02  mlog
 mlog_0149             3.093460       6.159657E-02  mlog
 mlog_0150             2.980140       6.159657E-02  mlog
 mlog_0151             2.881780       6.159657E-02  mlog
 mlog_0152             2.791900       6.159657E-02  mlog
 mlog_0153             2.714500       6.159657E-02  mlog
 mlog_0154             2.654470       6.159657E-02  mlog
 mlog_0155             2.614370       6.159657E-02  mlog
 mlog_0156             2.889020       6.159657E-02  mlog
 mlog_0157             2.960280       6.159657E-02  mlog
 mlog_0158             2.905470       6.159657E-02  mlog
 mlog_0159             2.830140       6.159657E-02  mlog
 mlog_0160             2.756560       6.159657E-02  mlog
 mlog_0161             2.693730       6.159657E-02  mlog
 mlog_0162             2.636290       6.159657E-02  mlog
 mlog_0163             2.599010       6.159657E-02  mlog
 mlog_0164             2.546170       6.159657E-02  mlog
 mlog_0165             2.497760       6.159657E-02  mlog
 mlog_0166             2.458790       6.159657E-02  mlog
 mlog_0167             2.418300       6.159657E-02  mlog
 mlog_0168             2.376210       6.159657E-02  mlog
 mlog_0169             2.346550       6.159657E-02  mlog
 mlog_0170             2.320770       6.159657E-02  mlog
 mlog_0171             2.296450       6.159657E-02  mlog
 mlog_0172             2.267410       6.159657E-02  mlog
 mlog_0173             2.243290       6.159657E-02  mlog
 mlog_0174             2.270680       6.159657E-02  mlog
 mlog_0175             2.243290       6.159657E-02  mlog
 mlog_0176             2.206560       6.159657E-02  mlog
 mlog_0177             2.174640       6.159657E-02  mlog
 mlog_0178             2.153510       6.159657E-02  mlog
 mlog_0179             2.140190       6.159657E-02  mlog
 mlog_0180             2.121890       6.159657E-02  mlog
 mlog_0181             2.117270       6.159657E-02  mlog
 mlog_0182             2.112610       6.159657E-02  mlog
 mlog_0183             2.174640       6.159657E-02  mlog
 mlog_0184             2.186960       6.159657E-02  mlog
 mlog_0185             2.194790       6.159657E-02  mlog
 mlog_0186             2.178690       6.159657E-02  mlog
 mlog_0187             2.170560       6.159657E-02  mlog
 mlog_0188             2.148910       6.159657E-02  mlog
 mlog_0189             2.131300       6.159657E-02  mlog
 mlog_0190             2.112610       6.159657E-02  mlog
 mlog_0191             2.097950       6.159657E-02  mlog
 mlog_0192             2.077730       6.159657E-02  mlog
 mlog_0193             2.082790       6.159657E-02  mlog
 mlog_0194             2.148910       6.159657E-02  mlog
 mlog_0195             2.526340       6.159657E-02  mlog
 mlog_0196             2.871110       6.159657E-02  mlog
 mlog_0197             2.763050       6.159657E-02  mlog
 mlog_0198             2.641970       6.159657E-02  mlog
 mlog_0199             2.583200       6.159657E-02  mlog
 mlog_0200             2.614370       6.159657E-02  mlog
 mlog_0201             2.626140       6.159657E-02  mlog
 mlog_0202             2.713320       6.159657E-02  mlog
 mlog_0203             2.786890       6.159657E-02  mlog
 mlog_0204             2.842730       6.159657E-02  mlog
 mlog_0205             2.847140       6.159657E-02  mlog
 mlog_0206             3.270700       6.159657E-02  mlog
 mlog_0207             3.450100       6.159657E-02  mlog
 mlog_0208             3.239770       6.159657E-02  mlog
 mlog_0209             3.076170       6.159657E-02  mlog
 mlog_0210             2.943690       6.159657E-02  mlog
 mlog_0211             2.838280       6.159657E-02  mlog
 mlog_0212             2.746710       6.159657E-02  mlog
 mlog_0213             2.659920       6.159657E-02  mlog
 mlog_0214             2.586360       6.159657E-02  mlog
 mlog_0215             2.518910       6.159657E-02  mlog
 mlog_0216             2.469380       6.159657E-02  mlog
 mlog_0217             2.413470       6.159657E-02  mlog
 mlog_0218             2.354880       6.159657E-02  mlog
 mlog_0219             2.302550       6.159657E-02  mlog
 mlog_0220             2.273930       6.159657E-02  mlog
 mlog_0221             2.236290       6.159657E-02  mlog
 mlog_0222             2.194790       6.159657E-02  mlog
 mlog_0223             2.166130       6.159657E-02  mlog
 mlog_0224             2.135770       6.159657E-02  mlog
 mlog_0225             2.112610       6.159657E-02  mlog
 mlog_0226             2.170560       6.159657E-02  mlog
 mlog_0227             2.148910       6.159657E-02  mlog
 mlog_0228             2.148910       6.159657E-02  mlog
 mlog_0229             2.126460       6.159657E-02  mlog
 mlog_0230             2.202760       6.159657E-02  mlog
 mlog_0231             2.360210       6.159657E-02  mlog
 mlog_0232             2.460900       6.159657E-02  mlog
 mlog_0233             2.427650       6.159657E-02  mlog
 mlog_0234             2.403810       6.159657E-02  mlog
 mlog_0235             2.675870       6.159657E-02  mlog
 mlog_0236             2.853270       6.159657E-02  mlog
 mlog_0237             2.772540       6.159657E-02  mlog
 mlog_0238             2.670620       6.159657E-02  mlog
 mlog_0239             2.579900       6.159657E-02  mlog
 mlog_0240             2.503650       6.159657E-02  mlog
 mlog_0241             2.445760       6.159657E-02  mlog
 mlog_0242             2.401400       6.159657E-02  mlog
 mlog_0243             2.351990       6.159657E-02  mlog
 mlog_0244             2.308780       6.159657E-02  mlog
 mlog_0245             2.270680       6.159657E-02  mlog
 mlog_0246             2.239800       6.159657E-02  mlog
 mlog_0247             2.214050       6.159657E-02  mlog
 mlog_0248             2.186960       6.159657E-02  mlog
 mlog_0249             2.153510       6.159657E-02  mlog
 mlog_0250             2.131300       6.159657E-02  mlog
 mlog_0251             2.107550       6.159657E-02  mlog
 mlog_0252             2.087780       6.159657E-02  mlog
 mlog_0253             2.061830       6.159657E-02  mlog
 mlog_0254             2.051150       6.159657E-02  mlog
 mlog_0255             2.022840       6.159657E-02  mlog
 mlog_0256             1.985880       6.159657E-02  mlog
 mlog_0257             1.966140       6.159657E-02  mlog
 mlog_0258             1.945960       6.159657E-02  mlog
 mlog_0259             1.924280       6.159657E-02  mlog
 mlog_0260             1.916980       6.159657E-02  mlog
 mlog_0261             1.916980       6.159657E-02  mlog
 mlog_0262             1.924280       6.159657E-02  mlog
 mlog_0263             1.893760       6.159657E-02  mlog
 mlog_0264             1.869230       6.159657E-02  mlog
 mlog_0265             1.852480       6.159657E-02  mlog
 mlog_0266             1.843860       6.159657E-02  mlog
 mlog_0267             1.952790       6.159657E-02  mlog
 mlog_0268             1.931460       6.159657E-02  mlog
 mlog_0269             1.885930       6.159657E-02  mlog
 mlog_0270             1.825430       6.159657E-02  mlog
 mlog_0271             1.796580       6.159657E-02  mlog
 mlog_0272             1.806860       6.159657E-02  mlog
 mlog_0273             1.776700       6.159657E-02  mlog
 mlog_0274             1.755110       6.159657E-02  mlog
 mlog_0275             1.733200       6.159657E-02  mlog
 mlog_0276             1.733200       6.159657E-02  mlog
 mlog_0277             1.710120       6.159657E-02  mlog
 mlog_0278             1.710120       6.159657E-02  mlog
 mlog_0279             1.684850       6.159657E-02  mlog
 mlog_0280             1.672100       6.159657E-02  mlog
 mlog_0281             1.644440       6.159657E-02  mlog
 mlog_0282             1.630430       6.159657E-02  mlog
 mlog_0283             1.630430       6.159657E-02  mlog
 mlog_0284             1.630430       6.159657E-02  mlog
 mlog_0285             1.600970       6.159657E-02  mlog
 mlog_0286             1.584330       6.159657E-02  mlog
 mlog_0287             1.568200       6.159657E-02  mlog
 mlog_0288             1.551450       6.159657E-02  mlog
 mlog_0289             1.551450       6.159657E-02  mlog
 mlog_0290             1.551450       6.159657E-02  mlog
 mlog_0291             1.710120       6.159657E-02  mlog
 mlog_0292             1.852480       6.159657E-02  mlog
 mlog_0293             1.672100       6.159657E-02  mlog
 mlog_0294             1.615950       6.159657E-02  mlog
 mlog_0295             1.584330       6.159657E-02  mlog
 mlog_0296             1.568200       6.159657E-02  mlog
 mlog_0297             1.534030       6.159657E-02  mlog
 mlog_0298             1.514550       6.159657E-02  mlog
 mlog_0299             1.495550       6.159657E-02  mlog
 mlog_0300             1.475670       6.159657E-02  mlog
 mlog_0301             1.475670       6.159657E-02  mlog
 mlog_0302             1.475670       6.159657E-02  mlog
 mlog_0303             1.475670       6.159657E-02  mlog
 mlog_0304             1.454850       6.159657E-02  mlog
 mlog_0305             1.432970       6.159657E-02  mlog
 mlog_0306             1.408240       6.159657E-02  mlog
 mlog_0307             1.475670       6.159657E-02  mlog
 mlog_0308             1.534030       6.159657E-02  mlog
 mlog_0309             1.475670       6.159657E-02  mlog
 mlog_0310             1.475670       6.159657E-02  mlog
 mlog_0311             1.475670       6.159657E-02  mlog
 mlog_0312             1.432970       6.159657E-02  mlog
 mlog_0313             1.383820       6.159657E-02  mlog
 mlog_0314             1.383820       6.159657E-02  mlog
 mlog_0315             1.383820       6.159657E-02  mlog
 mlog_0316             1.383820       6.159657E-02  mlog
 mlog_0317             1.383820       6.159657E-02  mlog
 mlog_0318             1.383820       6.159657E-02  mlog
 mlog_0319             1.330420       6.159657E-02  mlog
 mlog_0320             1.330420       6.159657E-02  mlog
 mlog_0321             1.330420       6.159657E-02  mlog
 mlog_0322             1.298860       6.159657E-02  mlog
 mlog_0323             1.298860       6.159657E-02  mlog
 mlog_0324             1.267170       6.159657E-02  mlog
 mlog_0325             1.267170       6.159657E-02  mlog
 mlog_0326             1.267170       6.159657E-02  mlog
 mlog_0327             1.233000       6.159657E-02  mlog
 mlog_0328             1.233000       6.159657E-02  mlog
 mlog_0329             1.233000       6.159657E-02  mlog
 mlog_0330             1.195900       6.159657E-02  mlog
 mlog_0331             1.233000       6.159657E-02  mlog
 mlog_0332             1.233000       6.159657E-02  mlog
 mlog_0333             1.233000       6.159657E-02  mlog
 mlog_0334             1.233000       6.159657E-02  mlog
 mlog_0335             1.195900       6.159657E-02  mlog
 mlog_0336             1.152290       6.159657E-02  mlog
 mlog_0337             1.149220       6.159657E-02  mlog
 mlog_0338             1.136720       6.159657E-02  mlog
 mlog_0339             1.139880       6.159657E-02  mlog
 mlog_0340             1.139880       6.159657E-02  mlog
 mlog_0341             1.139880       6.159657E-02  mlog
 mlog_0342             1.146130       6.159657E-02  mlog
 mlog_0343             1.127110       6.159657E-02  mlog
 mlog_0344             1.117270       6.159657E-02  mlog
 mlog_0345             1.107210       6.159657E-02  mlog
 mlog_0346             1.086360       6.159657E-02  mlog
 mlog_0347             1.082790       6.159657E-02  mlog
 mlog_0348             1.082790       6.159657E-02  mlog
 mlog_0349             1.107210       6.159657E-02  mlog
 mlog_0350             1.432970       6.159657E-02  mlog
 mlog_0351             1.860940       6.159657E-02  mlog
 mlog_0352             1.786750       6.159657E-02  mlog
 mlog_0353             1.860940       6.159657E-02  mlog
 mlog_0354             1.600970       6.159657E-02  mlog
 mlog_0355             1.534030       6.159657E-02  mlog
 mlog_0356             1.475670       6.159657E-02  mlog
 mlog_0357             1.357940       6.159657E-02  mlog
 mlog_0358             1.330420       6.159657E-02  mlog
 mlog_0359             1.298860       6.159657E-02  mlog
 mlog_0360             1.330420       6.159657E-02  mlog
 mlog_0361             1.298860       6.159657E-02  mlog
 mlog_0362             1.267170       6.159657E-02  mlog
 mlog_0363             1.267170       6.159657E-02  mlog
 mlog_0364             1.298860       6.159657E-02  mlog
 mlog_0365             1.330420       6.159657E-02  mlog
 mlog_0366             1.357940       6.159657E-02  mlog
 mlog_0367             1.330420       6.159657E-02  mlog
 mlog_0368             1.383820       6.159657E-02  mlog
 mlog_0369             1.514550       6.159657E-02  mlog
 mlog_0370             1.684850       6.159657E-02  mlog
 mlog_0371             1.755110       6.159657E-02  mlog
 mlog_0372             1.755110       6.159657E-02  mlog
 mlog_0373             1.825430       6.159657E-02  mlog
 mlog_0374             1.869230       6.159657E-02  mlog
 mlog_0375             1.796580       6.159657E-02  mlog
 mlog_0376             1.744290       6.159657E-02  mlog
 mlog_0377             1.658970       6.159657E-02  mlog
 mlog_0378             1.630430       6.159657E-02  mlog
 mlog_0379             1.806860       6.159657E-02  mlog
 mlog_0380             2.308780       6.159657E-02  mlog
 mlog_0381             2.386500       6.159657E-02  mlog
 mlog_0382             2.323660       6.159657E-02  mlog
 mlog_0383             2.214050       6.159657E-02  mlog
 mlog_0384             2.107550       6.159657E-02  mlog
 mlog_0385             2.010720       6.159657E-02  mlog
 mlog_0386             1.938520       6.159657E-02  mlog
 mlog_0387             2.056520       6.159657E-02  mlog
 mlog_0388             2.194790       6.159657E-02  mlog
 mlog_0389             2.166130       6.159657E-02  mlog
 mlog_0390             2.623250       6.159657E-02  mlog
 mlog_0391             2.743350       6.159657E-02  mlog
 mlog_0392             2.700010       6.159657E-02  mlog
 mlog_0393             2.469380       6.159657E-02  mlog
 mlog_0394             2.370880       6.159657E-02  mlog
 mlog_0395             2.473630       6.159657E-02  mlog
 mlog_0396             2.381300       6.159657E-02  mlog
 mlog_0397             2.293360       6.159657E-02  mlog
 mlog_0398             2.214050       6.159657E-02  mlog
 mlog_0399             2.153510       6.159657E-02  mlog
 mlog_0400             2.112610       6.159657E-02  mlog
 mlog_0401             2.117270       6.159657E-02  mlog
 mlog_0402             2.087780       6.159657E-02  mlog
 mlog_0403             2.067070       6.159657E-02  mlog
 mlog_0404             2.107550       6.159657E-02  mlog
 mlog_0405             2.072620       6.159657E-02  mlog
 mlog_0406             2.045710       6.159657E-02  mlog
 mlog_0407             2.034230       6.159657E-02  mlog
 mlog_0408             2.010720       6.159657E-02  mlog
 mlog_0409             2.016620       6.159657E-02  mlog
 mlog_0410             2.107550       6.159657E-02  mlog
 mlog_0411             2.228910       6.159657E-02  mlog
 mlog_0412             2.329600       6.159657E-02  mlog
 mlog_0413             2.546170       6.159657E-02  mlog
 mlog_0414             2.840040       6.159657E-02  mlog
 mlog_0415             2.975620       6.159657E-02  mlog
 mlog_0416             3.772520       6.159657E-02  mlog
 mlog_0417             3.522640       6.159657E-02  mlog
 mlog_0418             3.206500       6.159657E-02  mlog
 mlog_0419             3.055420       6.159657E-02  mlog
 mlog_0420             2.934450       6.159657E-02  mlog
 mlog_0421             2.899270       6.159657E-02  mlog
 mlog_0422             2.892980       6.159657E-02  mlog
 mlog_0423             2.840980       6.159657E-02  mlog
 mlog_0424             2.819940       6.159657E-02  mlog
 mlog_0425             3.029630       6.159657E-02  mlog
 mlog_0426             3.072510       6.159657E-02  mlog
 mlog_0427             2.986590       6.159657E-02  mlog
 mlog_0428             3.010170       6.159657E-02  mlog
 mlog_0429             3.054340       6.159657E-02  mlog
 mlog_0430             3.166250       6.159657E-02  mlog
 mlog_0431             3.243340       6.159657E-02  mlog
 mlog_0432             3.487890       6.159657E-02  mlog
 mlog_0433             3.362930       6.159657E-02  mlog
 mlog_0434             3.346550       6.159657E-02  mlog
 mlog_0435             3.513260       6.159657E-02  mlog
 mlog_0436             3.403840       6.159657E-02  mlog
 mlog_0437             3.236210       6.159657E-02  mlog
 mlog_0438             3.170470       6.159657E-02  mlog
 mlog_0439             3.206500       6.159657E-02  mlog
 mlog_0440             3.210350       6.159657E-02  mlog
 mlog_0441             3.157760       6.159657E-02  mlog
 mlog_0442             3.043830       6.159657E-02  mlog
 mlog_0443             2.931560       6.159657E-02  mlog
 mlog_0444             2.830140       6.159657E-02  mlog
 mlog_0445             2.744530       6.159657E-02  mlog
 mlog_0446             2.671910       6.159657E-02  mlog
 mlog_0447             2.650400       6.159657E-02  mlog
 mlog_0448             2.697490       6.159657E-02  mlog
 mlog_0449             2.783830       6.159657E-02  mlog
 mlog_0450             2.816180       6.159657E-02  mlog
 mlog_0451             2.965010       6.159657E-02  mlog